  Version,25.2;

  Timestep,6;

  LifeCycleCost:Parameters,
    Life Cycle Cost Parameters,  !- Name
    EndOfYear,               !- Discounting Convention
    ConstantDollar,          !- Inflation Approach
    0.03,                    !- Real Discount Rate
    ,                        !- Nominal Discount Rate
    ,                        !- Inflation
    ,                        !- Base Date Month
    2011,                    !- Base Date Year
    ,                        !- Service Date Month
    2011,                    !- Service Date Year
    25,                      !- Length of Study Period in Years
    ,                        !- Tax rate
    None;                    !- Depreciation Method

  LifeCycleCost:UsePriceEscalation,
    U.S. Avg  Commercial-Electricity,  !- LCC Price Escalation Name
    Electricity,             !- Resource
    2011,                    !- Escalation Start Year
    January,                 !- Escalation Start Month
    0.9838,                  !- Year 1 Escalation
    0.9730,                  !- Year 2 Escalation
    0.9632,                  !- Year 3 Escalation
    0.9611,                  !- Year 4 Escalation
    0.9571,                  !- Year 5 Escalation
    0.9553,                  !- Year 6 Escalation
    0.9539,                  !- Year 7 Escalation
    0.9521,                  !- Year 8 Escalation
    0.9546,                  !- Year 9 Escalation
    0.9550,                  !- <none>
    0.9553,                  !- <none>
    0.9564,                  !- <none>
    0.9575,                  !- <none>
    0.9596,                  !- <none>
    0.9618,                  !- <none>
    0.9614,                  !- <none>
    0.9618,                  !- <none>
    0.9618,                  !- <none>
    0.9593,                  !- <none>
    0.9589,                  !- <none>
    0.9607,                  !- <none>
    0.9625,                  !- <none>
    0.9650,                  !- <none>
    0.9708,                  !- <none>
    0.9751,                  !- <none>
    0.9762,                  !- <none>
    0.9766,                  !- <none>
    0.9766,                  !- <none>
    0.9769,                  !- <none>
    0.9773;                  !- <none>

  LifeCycleCost:UsePriceEscalation,
    U.S. Avg  Commercial-Distillate Oil,  !- LCC Price Escalation Name
    FuelOilNo1,              !- Resource
    2011,                    !- Escalation Start Year
    January,                 !- Escalation Start Month
    0.9714,                  !- Year 1 Escalation
    0.9730,                  !- Year 2 Escalation
    0.9942,                  !- Year 3 Escalation
    1.0164,                  !- Year 4 Escalation
    1.0541,                  !- Year 5 Escalation
    1.0928,                  !- Year 6 Escalation
    1.1267,                  !- Year 7 Escalation
    1.1580,                  !- Year 8 Escalation
    1.1792,                  !- Year 9 Escalation
    1.1967,                  !- <none>
    1.2200,                  !- <none>
    1.2333,                  !- <none>
    1.2566,                  !- <none>
    1.2709,                  !- <none>
    1.2826,                  !- <none>
    1.2985,                  !- <none>
    1.3102,                  !- <none>
    1.3250,                  !- <none>
    1.3261,                  !- <none>
    1.3282,                  !- <none>
    1.3324,                  !- <none>
    1.3356,                  !- <none>
    1.3431,                  !- <none>
    1.3510,                  !- <none>
    1.3568,                  !- <none>
    1.3606,                  !- <none>
    1.3637,                  !- <none>
    1.3674,                  !- <none>
    1.3706,                  !- <none>
    1.3743;                  !- <none>

  LifeCycleCost:UsePriceEscalation,
    U.S. Avg  Commercial-Residual Oil,  !- LCC Price Escalation Name
    FuelOilNo2,              !- Resource
    2011,                    !- Escalation Start Year
    January,                 !- Escalation Start Month
    0.8469,                  !- Year 1 Escalation
    0.8257,                  !- Year 2 Escalation
    0.8681,                  !- Year 3 Escalation
    0.8988,                  !- Year 4 Escalation
    0.9289,                  !- Year 5 Escalation
    0.9604,                  !- Year 6 Escalation
    0.9897,                  !- Year 7 Escalation
    1.0075,                  !- Year 8 Escalation
    1.0314,                  !- Year 9 Escalation
    1.0554,                  !- <none>
    1.0861,                  !- <none>
    1.1278,                  !- <none>
    1.1497,                  !- <none>
    1.1620,                  !- <none>
    1.1743,                  !- <none>
    1.1852,                  !- <none>
    1.1948,                  !- <none>
    1.2037,                  !- <none>
    1.2071,                  !- <none>
    1.2119,                  !- <none>
    1.2139,                  !- <none>
    1.2194,                  !- <none>
    1.2276,                  !- <none>
    1.2365,                  !- <none>
    1.2420,                  !- <none>
    1.2461,                  !- <none>
    1.2509,                  !- <none>
    1.2550,                  !- <none>
    1.2591,                  !- <none>
    1.2638;                  !- <none>

  LifeCycleCost:UsePriceEscalation,
    U.S. Avg  Commercial-Natural gas,  !- LCC Price Escalation Name
    NaturalGas,              !- Resource
    2011,                    !- Escalation Start Year
    January,                 !- Escalation Start Month
    0.9823,                  !- Year 1 Escalation
    0.9557,                  !- Year 2 Escalation
    0.9279,                  !- Year 3 Escalation
    0.9257,                  !- Year 4 Escalation
    0.9346,                  !- Year 5 Escalation
    0.9412,                  !- Year 6 Escalation
    0.9512,                  !- Year 7 Escalation
    0.9645,                  !- Year 8 Escalation
    0.9856,                  !- Year 9 Escalation
    1.0067,                  !- <none>
    1.0222,                  !- <none>
    1.0410,                  !- <none>
    1.0610,                  !- <none>
    1.0787,                  !- <none>
    1.0942,                  !- <none>
    1.1098,                  !- <none>
    1.1220,                  !- <none>
    1.1308,                  !- <none>
    1.1386,                  !- <none>
    1.1486,                  !- <none>
    1.1619,                  !- <none>
    1.1763,                  !- <none>
    1.1918,                  !- <none>
    1.2118,                  !- <none>
    1.2284,                  !- <none>
    1.2439,                  !- <none>
    1.2605,                  !- <none>
    1.2772,                  !- <none>
    1.2938,                  !- <none>
    1.3115;                  !- <none>

  LifeCycleCost:UsePriceEscalation,
    U.S. Avg  Commercial-Coal,  !- LCC Price Escalation Name
    Coal,                    !- Resource
    2011,                    !- Escalation Start Year
    January,                 !- Escalation Start Month
    0.9970,                  !- Year 1 Escalation
    1.0089,                  !- Year 2 Escalation
    1.0089,                  !- Year 3 Escalation
    0.9941,                  !- Year 4 Escalation
    0.9941,                  !- Year 5 Escalation
    1.0000,                  !- Year 6 Escalation
    1.0030,                  !- Year 7 Escalation
    1.0059,                  !- Year 8 Escalation
    1.0089,                  !- Year 9 Escalation
    1.0119,                  !- <none>
    1.0148,                  !- <none>
    1.0178,                  !- <none>
    1.0208,                  !- <none>
    1.0267,                  !- <none>
    1.0297,                  !- <none>
    1.0356,                  !- <none>
    1.0415,                  !- <none>
    1.0534,                  !- <none>
    1.0564,                  !- <none>
    1.0593,                  !- <none>
    1.0653,                  !- <none>
    1.0712,                  !- <none>
    1.0742,                  !- <none>
    1.0801,                  !- <none>
    1.0831,                  !- <none>
    1.0831,                  !- <none>
    1.0861,                  !- <none>
    1.0890,                  !- <none>
    1.0920,                  !- <none>
    1.0950;                  !- <none>

  Building,
    ASHRAE 229 Base Test Building,  !- Name
    -0,                      !- North Axis {deg}
    ,                        !- Terrain
    ,                        !- Loads Convergence Tolerance Value {W}
    ,                        !- Temperature Convergence Tolerance Value {deltaC}
    ,                        !- Solar Distribution
    ,                        !- Maximum Number of Warmup Days
    ;                        !- Minimum Number of Warmup Days

  Zone,
    Core Zone 1,             !- Name
    ,                        !- Direction of Relative North {deg}
    0,                       !- X Origin {m}
    0,                       !- Y Origin {m}
    0,                       !- Z Origin {m}
    ,                        !- Type
    1,                       !- Multiplier
    ,                        !- Ceiling Height {m}
    ,                        !- Volume {m3}
    ,                        !- Floor Area {m2}
    ,                        !- Zone Inside Convection Algorithm
    ,                        !- Zone Outside Convection Algorithm
    Yes;                     !- Part of Total Floor Area

  Space,
    Core Space,              !- Name
    Core Zone 1,             !- Zone Name
    ,                        !- Ceiling Height {m}
    ,                        !- Volume {m3}
    ,                        !- Floor Area {m2}
    Space Type Office;       !- Space Type

  SpaceList,
    Space Type Office,       !- Name
    Core Space,              !- Space 1 Name
    Prm Space 1,             !- Space 2 Name
    Prm Space 4,             !- Space 3 Name
    Prm Space 2,             !- Space 4 Name
    Prm Space 3;             !- Space 5 Name

  BuildingSurface:Detailed,
    EastPartWall Core Space, !- Name
    Wall,                    !- Surface Type
    Interior Wall,           !- Construction Name
    Core Zone 1,             !- Zone Name
    Core Space,              !- Space Name
    Surface,                 !- Outside Boundary Condition
    WestPartWall Prm Space 3,!- Outside Boundary Condition Object
    NoSun,                   !- Sun Exposure
    NoWind,                  !- Wind Exposure
    ,                        !- View Factor to Ground
    ,                        !- Number of Vertices
    45.32376,4.572,3.9624,  !- X,Y,Z ==> Vertex 1 {m}
    45.32376,4.572,0,  !- X,Y,Z ==> Vertex 2 {m}
    45.32376,28.71216,0,  !- X,Y,Z ==> Vertex 3 {m}
    45.32376,28.71216,3.9624;  !- X,Y,Z ==> Vertex 4 {m}

  BuildingSurface:Detailed,
    Floor Core Space,        !- Name
    Floor,                   !- Surface Type
    Slab-on-grade Type 1,    !- Construction Name
    Core Zone 1,             !- Zone Name
    Core Space,              !- Space Name
    Ground,                  !- Outside Boundary Condition
    ,                        !- Outside Boundary Condition Object
    NoSun,                   !- Sun Exposure
    NoWind,                  !- Wind Exposure
    ,                        !- View Factor to Ground
    ,                        !- Number of Vertices
    4.572,28.71216,0,  !- X,Y,Z ==> Vertex 1 {m}
    45.32376,28.71216,0,  !- X,Y,Z ==> Vertex 2 {m}
    45.32376,4.572,0,  !- X,Y,Z ==> Vertex 3 {m}
    4.572,4.572,0;  !- X,Y,Z ==> Vertex 4 {m}

  BuildingSurface:Detailed,
    NorthPartWall Core Space,!- Name
    Wall,                    !- Surface Type
    Interior Wall,           !- Construction Name
    Core Zone 1,             !- Zone Name
    Core Space,              !- Space Name
    Surface,                 !- Outside Boundary Condition
    SouthPartWall Prm Space 5,  !- Outside Boundary Condition Object
    NoSun,                   !- Sun Exposure
    NoWind,                  !- Wind Exposure
    ,                        !- View Factor to Ground
    ,                        !- Number of Vertices
    45.32376,28.71216,3.9624,  !- X,Y,Z ==> Vertex 1 {m}
    45.32376,28.71216,0,  !- X,Y,Z ==> Vertex 2 {m}
    4.572,28.71216,0,  !- X,Y,Z ==> Vertex 3 {m}
    4.572,28.71216,3.9624;  !- X,Y,Z ==> Vertex 4 {m}

  BuildingSurface:Detailed,
    Roof Core Sapce,         !- Name
    Roof,                    !- Surface Type
    Roof Type 1,             !- Construction Name
    Core Zone 1,             !- Zone Name
    Core Space,              !- Space Name
    Outdoors,                !- Outside Boundary Condition
    ,                        !- Outside Boundary Condition Object
    SunExposed,              !- Sun Exposure
    WindExposed,             !- Wind Exposure
    ,                        !- View Factor to Ground
    ,                        !- Number of Vertices
    4.572,4.572,3.9624,  !- X,Y,Z ==> Vertex 1 {m}
    45.32376,4.572,3.9624,  !- X,Y,Z ==> Vertex 2 {m}
    45.32376,28.71216,3.9624,  !- X,Y,Z ==> Vertex 3 {m}
    4.572,28.71216,3.9624;  !- X,Y,Z ==> Vertex 4 {m}

  BuildingSurface:Detailed,
    SouthPartWall Core Space,!- Name
    Wall,                    !- Surface Type
    Interior Wall,           !- Construction Name
    Core Zone 1,             !- Zone Name
    Core Space,              !- Space Name
    Surface,                 !- Outside Boundary Condition
    NorthPartWall Prm Space 2,  !- Outside Boundary Condition Object
    NoSun,                   !- Sun Exposure
    NoWind,                  !- Wind Exposure
    ,                        !- View Factor to Ground
    ,                        !- Number of Vertices
    4.572,4.572,3.9624,  !- X,Y,Z ==> Vertex 1 {m}
    4.572,4.572,0,  !- X,Y,Z ==> Vertex 2 {m}
    45.32376,4.572,0,  !- X,Y,Z ==> Vertex 3 {m}
    45.32376,4.572,3.9624;  !- X,Y,Z ==> Vertex 4 {m}

  BuildingSurface:Detailed,
    WestPartWall Core Space, !- Name
    Wall,                    !- Surface Type
    Interior Wall,           !- Construction Name
    Core Zone 1,             !- Zone Name
    Core Space,              !- Space Name
    Surface,                 !- Outside Boundary Condition
    EastPartWall Prm Space 1,!- Outside Boundary Condition Object
    NoSun,                   !- Sun Exposure
    NoWind,                  !- Wind Exposure
    ,                        !- View Factor to Ground
    ,                        !- Number of Vertices
    4.572,28.71216,3.9624,  !- X,Y,Z ==> Vertex 1 {m}
    4.572,28.71216,0,  !- X,Y,Z ==> Vertex 2 {m}
    4.572,4.572,0,  !- X,Y,Z ==> Vertex 3 {m}
    4.572,4.572,3.9624;  !- X,Y,Z ==> Vertex 4 {m}

  Lights,
    Core Space 1 Lights,     !- Name
    Core Space,              !- Zone or ZoneList or Space or SpaceList Name
    ASHRAE 229 Office Bldg Light Sch,  !- Schedule Name
    Watts/Area,              !- Design Level Calculation Method
    ,                        !- Lighting Level {W}
    11.03,                   !- Watts per Floor Area {W/m2}
    ,                        !- Watts per Person {W/person}
    ,                        !- Return Air Fraction
    ,                        !- Fraction Radiant
    ,                        !- Fraction Visible
    1,                       !- Fraction Replaceable
    General;                 !- End-Use Subcategory

  ScheduleTypeLimits,
    Fraction,                !- Name
    0,                       !- Lower Limit Value
    1,                       !- Upper Limit Value
    CONTINUOUS;              !- Numeric Type

  Schedule:Day:Interval,
    Weekday Light Day Schedule,  !- Name
    Fraction,                !- Schedule Type Limits Name
    No,                      !- Interpolate to Timestep
    06:00,                   !- Time 1
    0,                       !- Value Until Time 1
    07:00,                   !- Time 2
    0.1,                     !- Value Until Time 2
    08:00,                   !- Time 3
    0.2,                     !- Value Until Time 3
    17:00,                   !- Time 4
    0.95,                    !- Value Until Time 4
    18:00,                   !- Time 5
    0.3,                     !- Value Until Time 5
    22:00,                   !- Time 6
    0.1,                     !- Value Until Time 6
    24:00,                   !- Time 7
    0.05;                    !- Value Until Time 7

  Schedule:Day:Interval,
    Saturday Light Day Schedule,  !- Name
    Fraction,                !- Schedule Type Limits Name
    No,                      !- Interpolate to Timestep
    06:00,                   !- Time 1
    0,                       !- Value Until Time 1
    08:00,                   !- Time 2
    0.1,                     !- Value Until Time 2
    12:00,                   !- Time 3
    0.3,                     !- Value Until Time 3
    17:00,                   !- Time 4
    0.1,                     !- Value Until Time 4
    19:00,                   !- Time 5
    0.05,                    !- Value Until Time 5
    24:00,                   !- Time 6
    0;                       !- Value Until Time 6

  Schedule:Day:Interval,
    Sunday Light Day Schedule,  !- Name
    Fraction,                !- Schedule Type Limits Name
    No,                      !- Interpolate to Timestep
    06:00,                   !- Time 1
    0,                       !- Value Until Time 1
    18:00,                   !- Time 2
    0.05,                    !- Value Until Time 2
    24:00,                   !- Time 3
    0;                       !- Value Until Time 3

  Schedule:Week:Daily,
    ASHRAE 229 Office Bldg Light Sch Week Rule - Jan1-Jan2,  !- Name
    Weekday Light Day Schedule,  !- Sunday Schedule:Day Name
    Weekday Light Day Schedule,  !- Monday Schedule:Day Name
    Weekday Light Day Schedule,  !- Tuesday Schedule:Day Name
    Weekday Light Day Schedule,  !- Wednesday Schedule:Day Name
    Weekday Light Day Schedule,  !- Thursday Schedule:Day Name
    Weekday Light Day Schedule,  !- Friday Schedule:Day Name
    Saturday Light Day Schedule,  !- Saturday Schedule:Day Name
    Weekday Light Day Schedule,  !- Holiday Schedule:Day Name
    Office Bldg Light Summer Design Day,  !- SummerDesignDay Schedule:Day Name
    Office Bldg Light Winter Design Day,  !- WinterDesignDay Schedule:Day Name
    Weekday Light Day Schedule,  !- CustomDay1 Schedule:Day Name
    Weekday Light Day Schedule;  !- CustomDay2 Schedule:Day Name

  Schedule:Week:Daily,
    ASHRAE 229 Office Bldg Light Sch Week Rule - Jan3-Dec31,  !- Name
    Sunday Light Day Schedule,  !- Sunday Schedule:Day Name
    Weekday Light Day Schedule,  !- Monday Schedule:Day Name
    Weekday Light Day Schedule,  !- Tuesday Schedule:Day Name
    Weekday Light Day Schedule,  !- Wednesday Schedule:Day Name
    Weekday Light Day Schedule,  !- Thursday Schedule:Day Name
    Weekday Light Day Schedule,  !- Friday Schedule:Day Name
    Saturday Light Day Schedule,  !- Saturday Schedule:Day Name
    Weekday Light Day Schedule,  !- Holiday Schedule:Day Name
    Office Bldg Light Summer Design Day,  !- SummerDesignDay Schedule:Day Name
    Office Bldg Light Winter Design Day,  !- WinterDesignDay Schedule:Day Name
    Weekday Light Day Schedule,  !- CustomDay1 Schedule:Day Name
    Weekday Light Day Schedule;  !- CustomDay2 Schedule:Day Name

  Schedule:Year,
    ASHRAE 229 Office Bldg Light Sch,  !- Name
    Fraction,                !- Schedule Type Limits Name
    ASHRAE 229 Office Bldg Light Sch Week Rule - Jan1-Jan2,  !- Schedule:Week Name 1
    1,                       !- Start Month 1
    1,                       !- Start Day 1
    1,                       !- End Month 1
    2,                       !- End Day 1
    ASHRAE 229 Office Bldg Light Sch Week Rule - Jan3-Dec31,  !- Schedule:Week Name 2
    1,                       !- Start Month 2
    3,                       !- Start Day 2
    12,                      !- End Month 2
    31;                      !- End Day 2

  Schedule:Day:Interval,
    Office Bldg Light Summer Design Day,  !- Name
    Fraction,                !- Schedule Type Limits Name
    No,                      !- Interpolate to Timestep
    24:00,                   !- Time 1
    1;                       !- Value Until Time 1

  Schedule:Day:Interval,
    Office Bldg Light Winter Design Day,  !- Name
    Fraction,                !- Schedule Type Limits Name
    No,                      !- Interpolate to Timestep
    24:00,                   !- Time 1
    0;                       !- Value Until Time 1

  People,
    Core Space 1 People,     !- Name
    Core Space,              !- Zone or ZoneList or Space or SpaceList Name
    ASHRAE 229 Bldg Occup Sch,  !- Number of People Schedule Name
    People/Area,             !- Number of People Calculation Method
    ,                        !- Number of People
    0.0538195520835486,      !- People per Floor Area {person/m2}
    ,                        !- Floor Area per Person {m2/person}
    0.3,                     !- Fraction Radiant
    ,                        !- Sensible Heat Fraction
    ASHRAE 229 Office Activity Level;  !- Activity Level Schedule Name

  ScheduleTypeLimits,
    Fractional,              !- Name
    0,                       !- Lower Limit Value
    1,                       !- Upper Limit Value
    Continuous;              !- Numeric Type

  Schedule:Day:Interval,
    WeeksDays Bldg Occ Day Schedule,  !- Name
    Fractional,              !- Schedule Type Limits Name
    No,                      !- Interpolate to Timestep
    06:00,                   !- Time 1
    0,                       !- Value Until Time 1
    07:00,                   !- Time 2
    0.1,                     !- Value Until Time 2
    08:00,                   !- Time 3
    0.2,                     !- Value Until Time 3
    17:00,                   !- Time 4
    0.95,                    !- Value Until Time 4
    18:00,                   !- Time 5
    0.3,                     !- Value Until Time 5
    22:00,                   !- Time 6
    0.1,                     !- Value Until Time 6
    24:00,                   !- Time 7
    0.05;                    !- Value Until Time 7

  Schedule:Day:Interval,
    Saturday Bldg Occ Day Schedule,  !- Name
    Fractional,              !- Schedule Type Limits Name
    No,                      !- Interpolate to Timestep
    06:00,                   !- Time 1
    0,                       !- Value Until Time 1
    08:00,                   !- Time 2
    0.1,                     !- Value Until Time 2
    12:00,                   !- Time 3
    0.3,                     !- Value Until Time 3
    17:00,                   !- Time 4
    0.1,                     !- Value Until Time 4
    19:00,                   !- Time 5
    0.05,                    !- Value Until Time 5
    24:00,                   !- Time 6
    0;                       !- Value Until Time 6

  Schedule:Day:Interval,
    Sunday Bldg Occ Day Schedule,  !- Name
    Fractional,              !- Schedule Type Limits Name
    No,                      !- Interpolate to Timestep
    06:00,                   !- Time 1
    0,                       !- Value Until Time 1
    18:00,                   !- Time 2
    0.05,                    !- Value Until Time 2
    24:00,                   !- Time 3
    0;                       !- Value Until Time 3

  Schedule:Week:Daily,
    ASHRAE 229 Bldg Occup Sch Week Rule - Jan1-Jan2,  !- Name
    WeeksDays Bldg Occ Day Schedule,  !- Sunday Schedule:Day Name
    WeeksDays Bldg Occ Day Schedule,  !- Monday Schedule:Day Name
    WeeksDays Bldg Occ Day Schedule,  !- Tuesday Schedule:Day Name
    WeeksDays Bldg Occ Day Schedule,  !- Wednesday Schedule:Day Name
    WeeksDays Bldg Occ Day Schedule,  !- Thursday Schedule:Day Name
    WeeksDays Bldg Occ Day Schedule,  !- Friday Schedule:Day Name
    Saturday Bldg Occ Day Schedule,  !- Saturday Schedule:Day Name
    WeeksDays Bldg Occ Day Schedule,  !- Holiday Schedule:Day Name
    Small Office Bldg Occ Summer Design Day,  !- SummerDesignDay Schedule:Day Name
    Small Office Bldg Occ Winter Design Day,  !- WinterDesignDay Schedule:Day Name
    WeeksDays Bldg Occ Day Schedule,  !- CustomDay1 Schedule:Day Name
    WeeksDays Bldg Occ Day Schedule;  !- CustomDay2 Schedule:Day Name

  Schedule:Week:Daily,
    ASHRAE 229 Bldg Occup Sch Week Rule - Jan3-Dec31,  !- Name
    Sunday Bldg Occ Day Schedule,  !- Sunday Schedule:Day Name
    WeeksDays Bldg Occ Day Schedule,  !- Monday Schedule:Day Name
    WeeksDays Bldg Occ Day Schedule,  !- Tuesday Schedule:Day Name
    WeeksDays Bldg Occ Day Schedule,  !- Wednesday Schedule:Day Name
    WeeksDays Bldg Occ Day Schedule,  !- Thursday Schedule:Day Name
    WeeksDays Bldg Occ Day Schedule,  !- Friday Schedule:Day Name
    Saturday Bldg Occ Day Schedule,  !- Saturday Schedule:Day Name
    WeeksDays Bldg Occ Day Schedule,  !- Holiday Schedule:Day Name
    Small Office Bldg Occ Summer Design Day,  !- SummerDesignDay Schedule:Day Name
    Small Office Bldg Occ Winter Design Day,  !- WinterDesignDay Schedule:Day Name
    WeeksDays Bldg Occ Day Schedule,  !- CustomDay1 Schedule:Day Name
    WeeksDays Bldg Occ Day Schedule;  !- CustomDay2 Schedule:Day Name

  Schedule:Year,
    ASHRAE 229 Bldg Occup Sch,  !- Name
    Fractional,              !- Schedule Type Limits Name
    ASHRAE 229 Bldg Occup Sch Week Rule - Jan1-Jan2,  !- Schedule:Week Name 1
    1,                       !- Start Month 1
    1,                       !- Start Day 1
    1,                       !- End Month 1
    2,                       !- End Day 1
    ASHRAE 229 Bldg Occup Sch Week Rule - Jan3-Dec31,  !- Schedule:Week Name 2
    1,                       !- Start Month 2
    3,                       !- Start Day 2
    12,                      !- End Month 2
    31;                      !- End Day 2

  Schedule:Day:Interval,
    Small Office Bldg Occ Summer Design Day,  !- Name
    Fractional,              !- Schedule Type Limits Name
    No,                      !- Interpolate to Timestep
    06:00,                   !- Time 1
    0,                       !- Value Until Time 1
    22:00,                   !- Time 2
    1,                       !- Value Until Time 2
    24:00,                   !- Time 3
    0.05;                    !- Value Until Time 3

  Schedule:Day:Interval,
    Small Office Bldg Occ Winter Design Day,  !- Name
    Fractional,              !- Schedule Type Limits Name
    No,                      !- Interpolate to Timestep
    24:00,                   !- Time 1
    0;                       !- Value Until Time 1

  ScheduleTypeLimits,
    ActivityLevel 12,        !- Name
    0,                       !- Lower Limit Value
    ,                        !- Upper Limit Value
    Continuous,              !- Numeric Type
    activitylevel;           !- Unit Type

  Schedule:Day:Interval,
    Small Office Activity Default Schedule,  !- Name
    ActivityLevel 12,        !- Schedule Type Limits Name
    No,                      !- Interpolate to Timestep
    24:00,                   !- Time 1
    120;                     !- Value Until Time 1

  Schedule:Week:Daily,
    ASHRAE 229 Office Activity Level Week Rule - Jan1-Dec31,  !- Name
    Small Office Activity Default Schedule,  !- Sunday Schedule:Day Name
    Small Office Activity Default Schedule,  !- Monday Schedule:Day Name
    Small Office Activity Default Schedule,  !- Tuesday Schedule:Day Name
    Small Office Activity Default Schedule,  !- Wednesday Schedule:Day Name
    Small Office Activity Default Schedule,  !- Thursday Schedule:Day Name
    Small Office Activity Default Schedule,  !- Friday Schedule:Day Name
    Small Office Activity Default Schedule,  !- Saturday Schedule:Day Name
    Small Office Activity Default Schedule,  !- Holiday Schedule:Day Name
    Small Office Activity Summer Design Day,  !- SummerDesignDay Schedule:Day Name
    Small Office Activity Winter Design Day,  !- WinterDesignDay Schedule:Day Name
    Small Office Activity Default Schedule,  !- CustomDay1 Schedule:Day Name
    Small Office Activity Default Schedule;  !- CustomDay2 Schedule:Day Name

  Schedule:Year,
    ASHRAE 229 Office Activity Level,  !- Name
    ActivityLevel 12,        !- Schedule Type Limits Name
    ASHRAE 229 Office Activity Level Week Rule - Jan1-Dec31,  !- Schedule:Week Name 1
    1,                       !- Start Month 1
    1,                       !- Start Day 1
    12,                      !- End Month 1
    31;                      !- End Day 1

  Schedule:Day:Interval,
    Small Office Activity Summer Design Day,  !- Name
    ActivityLevel 12,        !- Schedule Type Limits Name
    No,                      !- Interpolate to Timestep
    24:00,                   !- Time 1
    120;                     !- Value Until Time 1

  Schedule:Day:Interval,
    Small Office Activity Winter Design Day,  !- Name
    ActivityLevel 12,        !- Schedule Type Limits Name
    No,                      !- Interpolate to Timestep
    24:00,                   !- Time 1
    120;                     !- Value Until Time 1

  ElectricEquipment,
    Core Space 1 ElecEquip,  !- Name
    Core Space,              !- Zone or ZoneList or Space or SpaceList Name
    ASHRAE 229 Office Plug Load Sch,  !- Schedule Name
    Watts/Area,              !- Design Level Calculation Method
    ,                        !- Design Level {W}
    8.07,                    !- Watts per Floor Area {W/m2}
    ,                        !- Watts per Person {W/person}
    ,                        !- Fraction Latent
    ,                        !- Fraction Radiant
    ,                        !- Fraction Lost
    General;                 !- End-Use Subcategory

  Schedule:Day:Interval,
    Weekdays Plug Load Schedule,  !- Name
    Fractional,              !- Schedule Type Limits Name
    No,                      !- Interpolate to Timestep
    06:00,                   !- Time 1
    0.31,                    !- Value Until Time 1
    08:00,                   !- Time 2
    0.38,                    !- Value Until Time 2