
Version,
  24.2;                                   !- Version Identifier

Timestep,
  6;                                      !- Number of Timesteps per Hour

LifeCycleCost:Parameters,
  Life Cycle Cost Parameters,             !- Name
  EndOfYear,                              !- Discounting Convention
  ConstantDollar,                         !- Inflation Approach
  0.03,                                   !- Real Discount Rate
  ,                                       !- Nominal Discount Rate
  ,                                       !- Inflation
  ,                                       !- Base Date Month
  2011,                                   !- Base Date Year
  ,                                       !- Service Date Month
  2011,                                   !- Service Date Year
  25,                                     !- Length of Study Period in Years
  ,                                       !- Tax rate
  None;                                   !- Depreciation Method

LifeCycleCost:UsePriceEscalation,
  U.S. Avg  Commercial-Electricity,       !- Name
  Electricity,                            !- Resource
  2011,                                   !- Escalation Start Year
  January,                                !- Escalation Start Month
  0.9838,                                 !- Year Escalation 1
  0.9730,                                 !- Year Escalation 2
  0.9632,                                 !- Year Escalation 3
  0.9611,                                 !- Year Escalation 4
  0.9571,                                 !- Year Escalation 5
  0.9553,                                 !- Year Escalation 6
  0.9539,                                 !- Year Escalation 7
  0.9521,                                 !- Year Escalation 8
  0.9546,                                 !- Year Escalation 9
  0.9550,                                 !- Year Escalation 10
  0.9553,                                 !- Year Escalation 11
  0.9564,                                 !- Year Escalation 12
  0.9575,                                 !- Year Escalation 13
  0.9596,                                 !- Year Escalation 14
  0.9618,                                 !- Year Escalation 15
  0.9614,                                 !- Year Escalation 16
  0.9618,                                 !- Year Escalation 17
  0.9618,                                 !- Year Escalation 18
  0.9593,                                 !- Year Escalation 19
  0.9589,                                 !- Year Escalation 20
  0.9607,                                 !- Year Escalation 21
  0.9625,                                 !- Year Escalation 22
  0.9650,                                 !- Year Escalation 23
  0.9708,                                 !- Year Escalation 24
  0.9751,                                 !- Year Escalation 25
  0.9762,                                 !- Year Escalation 26
  0.9766,                                 !- Year Escalation 27
  0.9766,                                 !- Year Escalation 28
  0.9769,                                 !- Year Escalation 29
  0.9773;                                 !- Year Escalation 30

LifeCycleCost:UsePriceEscalation,
  U.S. Avg  Commercial-Distillate Oil,    !- Name
  FuelOilNo1,                             !- Resource
  2011,                                   !- Escalation Start Year
  January,                                !- Escalation Start Month
  0.9714,                                 !- Year Escalation 1
  0.9730,                                 !- Year Escalation 2
  0.9942,                                 !- Year Escalation 3
  1.0164,                                 !- Year Escalation 4
  1.0541,                                 !- Year Escalation 5
  1.0928,                                 !- Year Escalation 6
  1.1267,                                 !- Year Escalation 7
  1.1580,                                 !- Year Escalation 8
  1.1792,                                 !- Year Escalation 9
  1.1967,                                 !- Year Escalation 10
  1.2200,                                 !- Year Escalation 11
  1.2333,                                 !- Year Escalation 12
  1.2566,                                 !- Year Escalation 13
  1.2709,                                 !- Year Escalation 14
  1.2826,                                 !- Year Escalation 15
  1.2985,                                 !- Year Escalation 16
  1.3102,                                 !- Year Escalation 17
  1.3250,                                 !- Year Escalation 18
  1.3261,                                 !- Year Escalation 19
  1.3282,                                 !- Year Escalation 20
  1.3324,                                 !- Year Escalation 21
  1.3356,                                 !- Year Escalation 22
  1.3431,                                 !- Year Escalation 23
  1.3510,                                 !- Year Escalation 24
  1.3568,                                 !- Year Escalation 25
  1.3606,                                 !- Year Escalation 26
  1.3637,                                 !- Year Escalation 27
  1.3674,                                 !- Year Escalation 28
  1.3706,                                 !- Year Escalation 29
  1.3743;                                 !- Year Escalation 30

LifeCycleCost:UsePriceEscalation,
  U.S. Avg  Commercial-Residual Oil,      !- Name
  FuelOilNo2,                             !- Resource
  2011,                                   !- Escalation Start Year
  January,                                !- Escalation Start Month
  0.8469,                                 !- Year Escalation 1
  0.8257,                                 !- Year Escalation 2
  0.8681,                                 !- Year Escalation 3
  0.8988,                                 !- Year Escalation 4
  0.9289,                                 !- Year Escalation 5
  0.9604,                                 !- Year Escalation 6
  0.9897,                                 !- Year Escalation 7
  1.0075,                                 !- Year Escalation 8
  1.0314,                                 !- Year Escalation 9
  1.0554,                                 !- Year Escalation 10
  1.0861,                                 !- Year Escalation 11
  1.1278,                                 !- Year Escalation 12
  1.1497,                                 !- Year Escalation 13
  1.1620,                                 !- Year Escalation 14
  1.1743,                                 !- Year Escalation 15
  1.1852,                                 !- Year Escalation 16
  1.1948,                                 !- Year Escalation 17
  1.2037,                                 !- Year Escalation 18
  1.2071,                                 !- Year Escalation 19
  1.2119,                                 !- Year Escalation 20
  1.2139,                                 !- Year Escalation 21
  1.2194,                                 !- Year Escalation 22
  1.2276,                                 !- Year Escalation 23
  1.2365,                                 !- Year Escalation 24
  1.2420,                                 !- Year Escalation 25
  1.2461,                                 !- Year Escalation 26
  1.2509,                                 !- Year Escalation 27
  1.2550,                                 !- Year Escalation 28
  1.2591,                                 !- Year Escalation 29
  1.2638;                                 !- Year Escalation 30

LifeCycleCost:UsePriceEscalation,
  U.S. Avg  Commercial-Natural gas,       !- Name
  NaturalGas,                             !- Resource
  2011,                                   !- Escalation Start Year
  January,                                !- Escalation Start Month
  0.9823,                                 !- Year Escalation 1
  0.9557,                                 !- Year Escalation 2
  0.9279,                                 !- Year Escalation 3
  0.9257,                                 !- Year Escalation 4
  0.9346,                                 !- Year Escalation 5
  0.9412,                                 !- Year Escalation 6
  0.9512,                                 !- Year Escalation 7
  0.9645,                                 !- Year Escalation 8
  0.9856,                                 !- Year Escalation 9
  1.0067,                                 !- Year Escalation 10
  1.0222,                                 !- Year Escalation 11
  1.0410,                                 !- Year Escalation 12
  1.0610,                                 !- Year Escalation 13
  1.0787,                                 !- Year Escalation 14
  1.0942,                                 !- Year Escalation 15
  1.1098,                                 !- Year Escalation 16
  1.1220,                                 !- Year Escalation 17
  1.1308,                                 !- Year Escalation 18
  1.1386,                                 !- Year Escalation 19
  1.1486,                                 !- Year Escalation 20
  1.1619,                                 !- Year Escalation 21
  1.1763,                                 !- Year Escalation 22
  1.1918,                                 !- Year Escalation 23
  1.2118,                                 !- Year Escalation 24
  1.2284,                                 !- Year Escalation 25
  1.2439,                                 !- Year Escalation 26
  1.2605,                                 !- Year Escalation 27
  1.2772,                                 !- Year Escalation 28
  1.2938,                                 !- Year Escalation 29
  1.3115;                                 !- Year Escalation 30

LifeCycleCost:UsePriceEscalation,
  U.S. Avg  Commercial-Coal,              !- Name
  Coal,                                   !- Resource
  2011,                                   !- Escalation Start Year
  January,                                !- Escalation Start Month
  0.9970,                                 !- Year Escalation 1
  1.0089,                                 !- Year Escalation 2
  1.0089,                                 !- Year Escalation 3
  0.9941,                                 !- Year Escalation 4
  0.9941,                                 !- Year Escalation 5
  1.0000,                                 !- Year Escalation 6
  1.0030,                                 !- Year Escalation 7
  1.0059,                                 !- Year Escalation 8
  1.0089,                                 !- Year Escalation 9
  1.0119,                                 !- Year Escalation 10
  1.0148,                                 !- Year Escalation 11
  1.0178,                                 !- Year Escalation 12
  1.0208,                                 !- Year Escalation 13
  1.0267,                                 !- Year Escalation 14
  1.0297,                                 !- Year Escalation 15
  1.0356,                                 !- Year Escalation 16
  1.0415,                                 !- Year Escalation 17
  1.0534,                                 !- Year Escalation 18
  1.0564,                                 !- Year Escalation 19
  1.0593,                                 !- Year Escalation 20
  1.0653,                                 !- Year Escalation 21
  1.0712,                                 !- Year Escalation 22
  1.0742,                                 !- Year Escalation 23
  1.0801,                                 !- Year Escalation 24
  1.0831,                                 !- Year Escalation 25
  1.0831,                                 !- Year Escalation 26
  1.0861,                                 !- Year Escalation 27
  1.0890,                                 !- Year Escalation 28
  1.0920,                                 !- Year Escalation 29
  1.0950;                                 !- Year Escalation 30

Building,
  ASHRAE 229 Base Test Building,          !- Name
  -0,                                     !- North Axis {deg}
  ,                                       !- Terrain
  ,                                       !- Loads Convergence Tolerance Value {W}
  ,                                       !- Temperature Convergence Tolerance Value {deltaC}
  ,                                       !- Solar Distribution
  ,                                       !- Maximum Number of Warmup Days
  ;                                       !- Minimum Number of Warmup Days

Zone,
  Core Zone 1,                            !- Name
  ,                                       !- Direction of Relative North {deg}
  0,                                      !- X Origin {m}
  0,                                      !- Y Origin {m}
  0,                                      !- Z Origin {m}
  ,                                       !- Type
  1,                                      !- Multiplier
  ,                                       !- Ceiling Height {m}
  ,                                       !- Volume {m3}
  ,                                       !- Floor Area {m2}
  ,                                       !- Zone Inside Convection Algorithm
  ,                                       !- Zone Outside Convection Algorithm
  Yes;                                    !- Part of Total Floor Area

Space,
  Core Space 1,                           !- Name
  Core Zone 1,                            !- Zone Name
  ,                                       !- Ceiling Height {m}
  ,                                       !- Volume {m3}
  ,                                       !- Floor Area {m2}
  Space Type Office;                      !- Space Type

SpaceList,
  Space Type Office,                      !- Name
  Core Space 1,                           !- Space Name 1
  Prm Space 1 (South),                    !- Space Name 2
  Prm Space 4 (West),                     !- Space Name 3
  Prm Space 2 (East),                     !- Space Name 4
  Prm Space 3 (North);                    !- Space Name 5

BuildingSurface:Detailed,
  EastPartWall Core Space,                !- Name
  Wall,                                   !- Surface Type
  Interior Wall,                          !- Construction Name
  Core Zone 1,                            !- Zone Name
  Core Space 1,                           !- Space Name
  Surface,                                !- Outside Boundary Condition
  WestPartWall Prm Space 3,               !- Outside Boundary Condition Object
  NoSun,                                  !- Sun Exposure
  NoWind,                                 !- Wind Exposure
  ,                                       !- View Factor to Ground
  ,                                       !- Number of Vertices
  45.32376, 4.572, 3.9624,                !- X,Y,Z Vertex 1 {m}
  45.32376, 4.572, 0,                     !- X,Y,Z Vertex 2 {m}
  45.32376, 28.71216, 0,                  !- X,Y,Z Vertex 3 {m}
  45.32376, 28.71216, 3.9624;             !- X,Y,Z Vertex 4 {m}

BuildingSurface:Detailed,
  Floor Core Space 1,                     !- Name
  Floor,                                  !- Surface Type
  Slab-on-grade Type 1,                   !- Construction Name
  Core Zone 1,                            !- Zone Name
  Core Space 1,                           !- Space Name
  Ground,                                 !- Outside Boundary Condition
  ,                                       !- Outside Boundary Condition Object
  NoSun,                                  !- Sun Exposure
  NoWind,                                 !- Wind Exposure
  ,                                       !- View Factor to Ground
  ,                                       !- Number of Vertices
  4.572, 28.71216, 0,                     !- X,Y,Z Vertex 1 {m}
  45.32376, 28.71216, 0,                  !- X,Y,Z Vertex 2 {m}
  45.32376, 4.572, 0,                     !- X,Y,Z Vertex 3 {m}
  4.572, 4.572, 0;                        !- X,Y,Z Vertex 4 {m}

BuildingSurface:Detailed,
  NorthPartWall Core Space,               !- Name
  Wall,                                   !- Surface Type
  Interior Wall,                          !- Construction Name
  Core Zone 1,                            !- Zone Name
  Core Space 1,                           !- Space Name
  Surface,                                !- Outside Boundary Condition
  SouthPartWall Prm Space 5,              !- Outside Boundary Condition Object
  NoSun,                                  !- Sun Exposure
  NoWind,                                 !- Wind Exposure
  ,                                       !- View Factor to Ground
  ,                                       !- Number of Vertices
  45.32376, 28.71216, 3.9624,             !- X,Y,Z Vertex 1 {m}
  45.32376, 28.71216, 0,                  !- X,Y,Z Vertex 2 {m}
  4.572, 28.71216, 0,                     !- X,Y,Z Vertex 3 {m}
  4.572, 28.71216, 3.9624;                !- X,Y,Z Vertex 4 {m}

BuildingSurface:Detailed,
  Roof Core Sapce,                        !- Name
  Roof,                                   !- Surface Type
  Roof Type 1,                            !- Construction Name
  Core Zone 1,                            !- Zone Name
  Core Space 1,                           !- Space Name
  Outdoors,                               !- Outside Boundary Condition
  ,                                       !- Outside Boundary Condition Object
  SunExposed,                             !- Sun Exposure
  WindExposed,                            !- Wind Exposure
  ,                                       !- View Factor to Ground
  ,                                       !- Number of Vertices
  4.572, 4.572, 3.9624,                   !- X,Y,Z Vertex 1 {m}
  45.32376, 4.572, 3.9624,                !- X,Y,Z Vertex 2 {m}
  45.32376, 28.71216, 3.9624,             !- X,Y,Z Vertex 3 {m}
  4.572, 28.71216, 3.9624;                !- X,Y,Z Vertex 4 {m}

BuildingSurface:Detailed,
  SouthPartWall Core Space,               !- Name
  Wall,                                   !- Surface Type
  Interior Wall,                          !- Construction Name
  Core Zone 1,                            !- Zone Name
  Core Space 1,                           !- Space Name
  Surface,                                !- Outside Boundary Condition
  NorthPartWall Prm Space 2,              !- Outside Boundary Condition Object
  NoSun,                                  !- Sun Exposure
  NoWind,                                 !- Wind Exposure
  ,                                       !- View Factor to Ground
  ,                                       !- Number of Vertices
  4.572, 4.572, 3.9624,                   !- X,Y,Z Vertex 1 {m}
  4.572, 4.572, 0,                        !- X,Y,Z Vertex 2 {m}
  45.32376, 4.572, 0,                     !- X,Y,Z Vertex 3 {m}
  45.32376, 4.572, 3.9624;                !- X,Y,Z Vertex 4 {m}

BuildingSurface:Detailed,
  WestPartWall Core Space,                !- Name
  Wall,                                   !- Surface Type
  Interior Wall,                          !- Construction Name
  Core Zone 1,                            !- Zone Name
  Core Space 1,                           !- Space Name
  Surface,                                !- Outside Boundary Condition
  EastPartWall Prm Space 1,               !- Outside Boundary Condition Object
  NoSun,                                  !- Sun Exposure
  NoWind,                                 !- Wind Exposure
  ,                                       !- View Factor to Ground
  ,                                       !- Number of Vertices
  4.572, 28.71216, 3.9624,                !- X,Y,Z Vertex 1 {m}
  4.572, 28.71216, 0,                     !- X,Y,Z Vertex 2 {m}
  4.572, 4.572, 0,                        !- X,Y,Z Vertex 3 {m}
  4.572, 4.572, 3.9624;                   !- X,Y,Z Vertex 4 {m}

Lights,
  Core Space 1 Lights,                    !- Name
  Core Space 1,                           !- Zone or ZoneList or Space or SpaceList Name
  ASHRAE 229 Office Bldg Light Sch,       !- Schedule Name
  Watts/Area,                             !- Design Level Calculation Method
  ,                                       !- Lighting Level {W}
  11.03,                                  !- Watts per Floor Area {W/m2}
  ,                                       !- Watts per Person {W/person}
  ,                                       !- Return Air Fraction
  ,                                       !- Fraction Radiant
  ,                                       !- Fraction Visible
  1,                                      !- Fraction Replaceable
  General;                                !- End-Use Subcategory

ScheduleTypeLimits,
  Fraction,                               !- Name
  0,                                      !- Lower Limit Value {BasedOnField A3}
  1,                                      !- Upper Limit Value {BasedOnField A3}
  CONTINUOUS;                             !- Numeric Type

Schedule:Day:Interval,
  Weekday Light Day Schedule,             !- Name
  Fraction,                               !- Schedule Type Limits Name
  No,                                     !- Interpolate to Timestep
  06:00,                                  !- Time 1 {hh:mm}
  0,                                      !- Value Until Time 1
  07:00,                                  !- Time 2 {hh:mm}
  0.1,                                    !- Value Until Time 2
  08:00,                                  !- Time 3 {hh:mm}
  0.2,                                    !- Value Until Time 3
  17:00,                                  !- Time 4 {hh:mm}
  0.95,                                   !- Value Until Time 4
  18:00,                                  !- Time 5 {hh:mm}
  0.3,                                    !- Value Until Time 5
  22:00,                                  !- Time 6 {hh:mm}
  0.1,                                    !- Value Until Time 6
  24:00,                                  !- Time 7 {hh:mm}
  0.05;                                   !- Value Until Time 7

Schedule:Day:Interval,
  Saturday Light Day Schedule,            !- Name
  Fraction,                               !- Schedule Type Limits Name
  No,                                     !- Interpolate to Timestep
  06:00,                                  !- Time 1 {hh:mm}
  0,                                      !- Value Until Time 1
  08:00,                                  !- Time 2 {hh:mm}
  0.1,                                    !- Value Until Time 2
  12:00,                                  !- Time 3 {hh:mm}
  0.3,                                    !- Value Until Time 3
  17:00,                                  !- Time 4 {hh:mm}
  0.1,                                    !- Value Until Time 4
  19:00,                                  !- Time 5 {hh:mm}
  0.05,                                   !- Value Until Time 5
  24:00,                                  !- Time 6 {hh:mm}
  0;                                      !- Value Until Time 6

Schedule:Day:Interval,
  Sunday Light Day Schedule,              !- Name
  Fraction,                               !- Schedule Type Limits Name
  No,                                     !- Interpolate to Timestep
  06:00,                                  !- Time 1 {hh:mm}
  0,                                      !- Value Until Time 1
  18:00,                                  !- Time 2 {hh:mm}
  0.05,                                   !- Value Until Time 2
  24:00,                                  !- Time 3 {hh:mm}
  0;                                      !- Value Until Time 3

Schedule:Week:Daily,
  ASHRAE 229 Office Bldg Light Sch Week Rule - Jan1-Jan2, !- Name
  Weekday Light Day Schedule,             !- Sunday Schedule:Day Name
  Weekday Light Day Schedule,             !- Monday Schedule:Day Name
  Weekday Light Day Schedule,             !- Tuesday Schedule:Day Name
  Weekday Light Day Schedule,             !- Wednesday Schedule:Day Name
  Weekday Light Day Schedule,             !- Thursday Schedule:Day Name
  Weekday Light Day Schedule,             !- Friday Schedule:Day Name
  Saturday Light Day Schedule,            !- Saturday Schedule:Day Name
  Weekday Light Day Schedule,             !- Holiday Schedule:Day Name
  Office Bldg Light Summer Design Day,    !- SummerDesignDay Schedule:Day Name
  Office Bldg Light Winter Design Day,    !- WinterDesignDay Schedule:Day Name
  Weekday Light Day Schedule,             !- CustomDay1 Schedule:Day Name
  Weekday Light Day Schedule;             !- CustomDay2 Schedule:Day Name

Schedule:Week:Daily,
  ASHRAE 229 Office Bldg Light Sch Week Rule - Jan3-Dec31, !- Name
  Sunday Light Day Schedule,              !- Sunday Schedule:Day Name
  Weekday Light Day Schedule,             !- Monday Schedule:Day Name
  Weekday Light Day Schedule,             !- Tuesday Schedule:Day Name
  Weekday Light Day Schedule,             !- Wednesday Schedule:Day Name
  Weekday Light Day Schedule,             !- Thursday Schedule:Day Name
  Weekday Light Day Schedule,             !- Friday Schedule:Day Name
  Saturday Light Day Schedule,            !- Saturday Schedule:Day Name
  Weekday Light Day Schedule,             !- Holiday Schedule:Day Name
  Office Bldg Light Summer Design Day,    !- SummerDesignDay Schedule:Day Name
  Office Bldg Light Winter Design Day,    !- WinterDesignDay Schedule:Day Name
  Weekday Light Day Schedule,             !- CustomDay1 Schedule:Day Name
  Weekday Light Day Schedule;             !- CustomDay2 Schedule:Day Name

Schedule:Year,
  ASHRAE 229 Office Bldg Light Sch,       !- Name
  Fraction,                               !- Schedule Type Limits Name
  ASHRAE 229 Office Bldg Light Sch Week Rule - Jan1-Jan2, !- Schedule:Week Name 1
  1,                                      !- Start Month 1
  1,                                      !- Start Day 1
  1,                                      !- End Month 1
  2,                                      !- End Day 1
  ASHRAE 229 Office Bldg Light Sch Week Rule - Jan3-Dec31, !- Schedule:Week Name 2
  1,                                      !- Start Month 2
  3,                                      !- Start Day 2
  12,                                     !- End Month 2
  31;                                     !- End Day 2

Schedule:Day:Interval,
  Office Bldg Light Summer Design Day,    !- Name
  Fraction,                               !- Schedule Type Limits Name
  No,                                     !- Interpolate to Timestep
  24:00,                                  !- Time 1 {hh:mm}
  1;                                      !- Value Until Time 1

Schedule:Day:Interval,
  Office Bldg Light Winter Design Day,    !- Name
  Fraction,                               !- Schedule Type Limits Name
  No,                                     !- Interpolate to Timestep
  24:00,                                  !- Time 1 {hh:mm}
  0;                                      !- Value Until Time 1

People,
  Core Space 1 People,                    !- Name
  Core Space 1,                           !- Zone or ZoneList or Space or SpaceList Name
  ASHRAE 229 Bldg Occup Sch,              !- Number of People Schedule Name
  People/Area,                            !- Number of People Calculation Method
  ,                                       !- Number of People
  0.0538195520835486,                     !- People per Floor Area {person/m2}
  ,                                       !- Floor Area per Person {m2/person}
  0.3,                                    !- Fraction Radiant
  ,                                       !- Sensible Heat Fraction
  ASHRAE 229 Office Activity Level;       !- Activity Level Schedule Name

ScheduleTypeLimits,
  Fractional,                             !- Name
  0,                                      !- Lower Limit Value {BasedOnField A3}
  1,                                      !- Upper Limit Value {BasedOnField A3}
  Continuous;                             !- Numeric Type

Schedule:Day:Interval,
  WeeksDays Bldg Occ Day Schedule,        !- Name
  Fractional,                             !- Schedule Type Limits Name
  No,                                     !- Interpolate to Timestep
  06:00,                                  !- Time 1 {hh:mm}
  0,                                      !- Value Until Time 1
  07:00,                                  !- Time 2 {hh:mm}
  0.1,                                    !- Value Until Time 2
  08:00,                                  !- Time 3 {hh:mm}
  0.2,                                    !- Value Until Time 3
  17:00,                                  !- Time 4 {hh:mm}
  0.95,                                   !- Value Until Time 4
  18:00,                                  !- Time 5 {hh:mm}
  0.3,                                    !- Value Until Time 5
  22:00,                                  !- Time 6 {hh:mm}
  0.1,                                    !- Value Until Time 6
  24:00,                                  !- Time 7 {hh:mm}
  0.05;                                   !- Value Until Time 7

Schedule:Day:Interval,
  Saturday Bldg Occ Day Schedule,         !- Name
  Fractional,                             !- Schedule Type Limits Name
  No,                                     !- Interpolate to Timestep
  06:00,                                  !- Time 1 {hh:mm}
  0,                                      !- Value Until Time 1
  08:00,                                  !- Time 2 {hh:mm}
  0.1,                                    !- Value Until Time 2
  12:00,                                  !- Time 3 {hh:mm}
  0.3,                                    !- Value Until Time 3
  17:00,                                  !- Time 4 {hh:mm}
  0.1,                                    !- Value Until Time 4
  19:00,                                  !- Time 5 {hh:mm}
  0.05,                                   !- Value Until Time 5
  24:00,                                  !- Time 6 {hh:mm}
  0;                                      !- Value Until Time 6

Schedule:Day:Interval,